tse_to_opendss/examples/Benchmark Systems/IEEE/IEEE 13 Bus - Distribution/ieee_13bus Target files/dss/data/regcontrols.dss
! Automatically generated by the Typhoon HIL TSE to OpenDSS converter.

new "REGCONTROL.REGC_REGCONTROL" vreg=127.5 ptratio=20 band=2 delay=15 winding=2 maxtapchange=1 transformer="REGC"
new "REGCONTROL.REGB_REGCONTROL" vreg=127.5 ptratio=20 band=2 delay=15 winding=2 maxtapchange=1 transformer="REGB"
new "REGCONTROL.REGA_REGCONTROL" vreg=127.5 ptratio=20 band=2 delay=15 winding=2 maxtapchange=1 transformer="REGA"
